<?xml version="1.0" encoding="UTF-8"?>

<!-- generated on 2023-04-29 11:04:11 by Eclipse Sumo_Configuration netedit Version 1.16.0
-->

<routes xmlns:xsi="http://www.w3.org/2001/XMLSchema-instance" xsi:noNamespaceSchemaLocation="http://sumo.dlr.de/xsd/routes_file.xsd">
    <!-- VTypes -->
    <vType id="soulEV65" minGap="2.50" maxSpeed="29.06" emissionClass="Energy/default" color="white" accel="1.0" decel="1.0" sigma="0.0">
        <param key="airDragCoefficient" value="0.35"/>
        <param key="constantPowerIntake" value="100"/>
        <param key="frontSurfaceArea" value="2.6"/>
        <param key="has.battery.device" value="true"/>
        <param key="internalMomentOfInertia" value="0.01"/>
        <param key="maximumBatteryCapacity" value="64000"/>
	  <param key="actualBatteryCapacity" value="10000"/>
        <param key="maximumPower" value="150000"/>
        <param key="propulsionEfficiency" value=".98"/>
        <param key="radialDragCoefficient" value="0.1"/>
        <param key="recuperationEfficiency" value=".96"/>
        <param key="rollDragCoefficient" value="0.01"/>
        <param key="stoppingThreshold" value="0.1"/>
        <param key="vehicleMass" value="1830"/>
    </vType>
    <!-- Vehicles, persons and containers (sorted by depart) -->
    <trip id="main_vehicle" type="soulEV65" depart="0.00" from="24935519#6" to="-5115636#7">
        <param key="maximumBatteryCapacity" value="100"/>
    </trip>
    <trip id="following_vehicle" type="soulEV65" depart="1.00" from="24935519#6" to="-5115636#7">
        <param key="maximumBatteryCapacity" value="64000"/>
    </trip>
</routes>
